

=====================================================================================================================
Input File:     W:\IBPSA Windows Paper\runs\Sacramento_highMass_interior_4inWall_6inSlab - window 4 - model 3.idf
Weather File:   C:\Users\christiankohler\Documents\EnergyStar\weather\ITA_Roma-Fiumicino.162420_IGDG.epw
Output Files:   W:\IBPSA Windows Paper\runs\Ouput\Sacramento_highMass_interior_4inWall_6inSlab - window 4 - model 3\Sacramento_highMass_interior_4inWall_6inSlab - window 4 - model 3
Output Time:    1/31/19 12:09:19 PM 
Counter:         1 
---------------------------------------------------------------------------------------------------------------------
Program Version,EnergyPlus, Version 9.0.1-bb7ca4f0da, YMD=2019.01.31 12:08,
   ************* Beginning Zone Sizing Calculations
   ** Warning ** Weather file location will be used rather than entered (IDF) Location object.
   **   ~~~   ** ..Location object=SACRAMENTO METROPOLITAN AP_CA_USA DESIGN_CONDITIONS
   **   ~~~   ** ..Weather File Location=Roma-Fiumicino - ITA IGDG WMO#=162420
   **   ~~~   ** ..due to location differences, Latitude difference=[3.10] degrees, Longitude difference=[133.81] degrees.
   **   ~~~   ** ..Time Zone difference=[9.0] hour(s), Elevation difference=[57.14] percent, [4.00] meters.
   ** Warning ** CalculateZoneVolume: 1 zone is not fully enclosed. For more details use:  Output:Diagnostics,DisplayExtrawarnings; 
   ** Warning ** CheckUsedConstructions: There are 12 nominally unused constructions in input.
   **   ~~~   ** For explicit details on each unused construction, use Output:Diagnostics,DisplayExtraWarnings;
   ************* Beginning System Sizing Calculations
   ** Warning ** Check input. Pump nominal power or motor efficiency is set to 0, for pump=MAINS PRESSURE_UNIT1
   ************* Testing Individual Branch Integrity
   ************* All Branches passed integrity testing
   ************* Testing Individual Supply Air Path Integrity
   ************* All Supply Air Paths passed integrity testing
   ************* Testing Individual Return Air Path Integrity
   ************* All Return Air Paths passed integrity testing
   ************* No node connection errors were found.
   ************* Beginning Simulation
   ************* Simulation Error Summary *************
   ************* There are 21 unused schedules in input.
   ************* There are 14 unused week schedules in input.
   ************* There are 14 unused day schedules in input.
   ************* Use Output:Diagnostics,DisplayUnusedSchedules; to see them.
   *************
   ************* ===== Final Error Summary =====
   ************* The following error categories occurred.  Consider correcting or noting.
   ************* Nominally Unused Constructions
   ************* ..The nominally unused constructions warning is provided to alert you to potential conditions that can cause
   ************* ..extra time during simulation. Each construction is calculated by the algorithm indicated in the HeatBalanceAlgorithm
   ************* ..object. You may remove the constructions indicated (when you use the DisplayExtraWarnings option).
   *************
   ************* EnergyPlus Warmup Error Summary. During Warmup: 0 Warning; 0 Severe Errors.
   ************* EnergyPlus Sizing Error Summary. During Sizing: 3 Warning; 0 Severe Errors.
   ************* EnergyPlus Completed Successfully-- 4 Warning; 0 Severe Errors; Elapsed Time=00hr 00min 33.73sec


=====================================================================================================================
Input File:     W:\IBPSA Windows Paper\runs\Sacramento_highMass_interior_4inWall_6inSlab - window 3 - model 6.idf
Weather File:   C:\Users\christiankohler\Documents\EnergyStar\weather\ITA_Roma-Fiumicino.162420_IGDG.epw
Output Files:   W:\IBPSA Windows Paper\runs\Ouput\Sacramento_highMass_interior_4inWall_6inSlab - window 3 - model 6\Sacramento_highMass_interior_4inWall_6inSlab - window 3 - model 6
Output Time:    1/31/19 12:09:21 PM 
Counter:         1 
---------------------------------------------------------------------------------------------------------------------
Program Version,EnergyPlus, Version 9.0.1-bb7ca4f0da, YMD=2019.01.31 12:08,
   ************* Beginning Zone Sizing Calculations
   ** Warning ** Weather file location will be used rather than entered (IDF) Location object.
   **   ~~~   ** ..Location object=SACRAMENTO METROPOLITAN AP_CA_USA DESIGN_CONDITIONS
   **   ~~~   ** ..Weather File Location=Roma-Fiumicino - ITA IGDG WMO#=162420
   **   ~~~   ** ..due to location differences, Latitude difference=[3.10] degrees, Longitude difference=[133.81] degrees.
   **   ~~~   ** ..Time Zone difference=[9.0] hour(s), Elevation difference=[57.14] percent, [4.00] meters.
   ** Warning ** GetSurfaceData: Window dimensions differ from Window 5/6 data file dimensions, 8 times.
   **   ~~~   ** This will affect the frame heat transfer calculation if the frame in the Data File entry
   **   ~~~   ** is not uniform, i.e., has sections with different geometry and/or thermal properties.
   **   ~~~   ** For explicit details on each window, use Output:Diagnostics,DisplayExtraWarnings;
   ** Warning ** CalculateZoneVolume: 1 zone is not fully enclosed. For more details use:  Output:Diagnostics,DisplayExtrawarnings; 
   ** Warning ** CheckUsedConstructions: There are 12 nominally unused constructions in input.
   **   ~~~   ** For explicit details on each unused construction, use Output:Diagnostics,DisplayExtraWarnings;
   ************* Beginning System Sizing Calculations
   ** Warning ** Check input. Pump nominal power or motor efficiency is set to 0, for pump=MAINS PRESSURE_UNIT1
   ************* Testing Individual Branch Integrity
   ************* All Branches passed integrity testing
   ************* Testing Individual Supply Air Path Integrity
   ************* All Supply Air Paths passed integrity testing
   ************* Testing Individual Return Air Path Integrity
   ************* All Return Air Paths passed integrity testing
   ************* No node connection errors were found.
   ************* Beginning Simulation
   ************* Simulation Error Summary *************
   ************* There are 21 unused schedules in input.
   ************* There are 14 unused week schedules in input.
   ************* There are 14 unused day schedules in input.
   ************* Use Output:Diagnostics,DisplayUnusedSchedules; to see them.
   *************
   ************* ===== Final Error Summary =====
   ************* The following error categories occurred.  Consider correcting or noting.
   ************* Nominally Unused Constructions
   ************* ..The nominally unused constructions warning is provided to alert you to potential conditions that can cause
   ************* ..extra time during simulation. Each construction is calculated by the algorithm indicated in the HeatBalanceAlgorithm
   ************* ..object. You may remove the constructions indicated (when you use the DisplayExtraWarnings option).
   *************
   ************* EnergyPlus Warmup Error Summary. During Warmup: 0 Warning; 0 Severe Errors.
   ************* EnergyPlus Sizing Error Summary. During Sizing: 3 Warning; 0 Severe Errors.
   ************* EnergyPlus Completed Successfully-- 4 Warning; 0 Severe Errors; Elapsed Time=00hr 00min 31.30sec


=====================================================================================================================
Input File:     W:\IBPSA Windows Paper\runs\Sacramento_highMass_interior_4inWall_6inSlab - window 3 - model 4.idf
Weather File:   C:\Users\christiankohler\Documents\EnergyStar\weather\ITA_Roma-Fiumicino.162420_IGDG.epw
Output Files:   W:\IBPSA Windows Paper\runs\Ouput\Sacramento_highMass_interior_4inWall_6inSlab - window 3 - model 4\Sacramento_highMass_interior_4inWall_6inSlab - window 3 - model 4
Output Time:    1/31/19 12:09:23 PM 
Counter:         1 
---------------------------------------------------------------------------------------------------------------------
Program Version,EnergyPlus, Version 9.0.1-bb7ca4f0da, YMD=2019.01.31 12:08,
   ************* Beginning Zone Sizing Calculations
   ** Warning ** Weather file location will be used rather than entered (IDF) Location object.
   **   ~~~   ** ..Location object=SACRAMENTO METROPOLITAN AP_CA_USA DESIGN_CONDITIONS
   **   ~~~   ** ..Weather File Location=Roma-Fiumicino - ITA IGDG WMO#=162420
   **   ~~~   ** ..due to location differences, Latitude difference=[3.10] degrees, Longitude difference=[133.81] degrees.
   **   ~~~   ** ..Time Zone difference=[9.0] hour(s), Elevation difference=[57.14] percent, [4.00] meters.
   ** Warning ** CalculateZoneVolume: 1 zone is not fully enclosed. For more details use:  Output:Diagnostics,DisplayExtrawarnings; 
   ** Warning ** CheckUsedConstructions: There are 12 nominally unused constructions in input.
   **   ~~~   ** For explicit details on each unused construction, use Output:Diagnostics,DisplayExtraWarnings;
   ************* Beginning System Sizing Calculations
   ** Warning ** Check input. Pump nominal power or motor efficiency is set to 0, for pump=MAINS PRESSURE_UNIT1
   ************* Testing Individual Branch Integrity
   ************* All Branches passed integrity testing
   ************* Testing Individual Supply Air Path Integrity
   ************* All Supply Air Paths passed integrity testing
   ************* Testing Individual Return Air Path Integrity
   ************* All Return Air Paths passed integrity testing
   ************* No node connection errors were found.
   ************* Beginning Simulation
   ************* Simulation Error Summary *************
   ************* There are 21 unused schedules in input.
   ************* There are 14 unused week schedules in input.
   ************* There are 14 unused day schedules in input.
   ************* Use Output:Diagnostics,DisplayUnusedSchedules; to see them.
   *************
   ************* ===== Final Error Summary =====
   ************* The following error categories occurred.  Consider correcting or noting.
   ************* Nominally Unused Constructions
   ************* ..The nominally unused constructions warning is provided to alert you to potential conditions that can cause
   ************* ..extra time during simulation. Each construction is calculated by the algorithm indicated in the HeatBalanceAlgorithm
   ************* ..object. You may remove the constructions indicated (when you use the DisplayExtraWarnings option).
   *************
   ************* EnergyPlus Warmup Error Summary. During Warmup: 0 Warning; 0 Severe Errors.
   ************* EnergyPlus Sizing Error Summary. During Sizing: 3 Warning; 0 Severe Errors.
   ************* EnergyPlus Completed Successfully-- 4 Warning; 0 Severe Errors; Elapsed Time=00hr 00min 30.97sec


=====================================================================================================================
Input File:     W:\IBPSA Windows Paper\runs\Sacramento_highMass_interior_4inWall_6inSlab - window 3 - model 5.idf
Weather File:   C:\Users\christiankohler\Documents\EnergyStar\weather\ITA_Roma-Fiumicino.162420_IGDG.epw
Output Files:   W:\IBPSA Windows Paper\runs\Ouput\Sacramento_highMass_interior_4inWall_6inSlab - window 3 - model 5\Sacramento_highMass_interior_4inWall_6inSlab - window 3 - model 5
Output Time:    1/31/19 12:09:24 PM 
Counter:         1 
---------------------------------------------------------------------------------------------------------------------
Program Version,EnergyPlus, Version 9.0.1-bb7ca4f0da, YMD=2019.01.31 12:08,
   ************* Beginning Zone Sizing Calculations
   ** Warning ** Weather file location will be used rather than entered (IDF) Location object.
   **   ~~~   ** ..Location object=SACRAMENTO METROPOLITAN AP_CA_USA DESIGN_CONDITIONS
   **   ~~~   ** ..Weather File Location=Roma-Fiumicino - ITA IGDG WMO#=162420
   **   ~~~   ** ..due to location differences, Latitude difference=[3.10] degrees, Longitude difference=[133.81] degrees.
   **   ~~~   ** ..Time Zone difference=[9.0] hour(s), Elevation difference=[57.14] percent, [4.00] meters.
   ** Warning ** CalculateZoneVolume: 1 zone is not fully enclosed. For more details use:  Output:Diagnostics,DisplayExtrawarnings; 
   ** Warning ** CheckUsedConstructions: There are 12 nominally unused constructions in input.
   **   ~~~   ** For explicit details on each unused construction, use Output:Diagnostics,DisplayExtraWarnings;
   ************* Beginning System Sizing Calculations
   ** Warning ** Check input. Pump nominal power or motor efficiency is set to 0, for pump=MAINS PRESSURE_UNIT1
   ************* Testing Individual Branch Integrity
   ************* All Branches passed integrity testing
   ************* Testing Individual Supply Air Path Integrity
   ************* All Supply Air Paths passed integrity testing
   ************* Testing Individual Return Air Path Integrity
   ************* All Return Air Paths passed integrity testing
   ************* No node connection errors were found.
   ************* Beginning Simulation
   ************* Simulation Error Summary *************
   ************* There are 21 unused schedules in input.
   ************* There are 14 unused week schedules in input.
   ************* There are 14 unused day schedules in input.
   ************* Use Output:Diagnostics,DisplayUnusedSchedules; to see them.
   *************
   ************* ===== Final Error Summary =====
   ************* The following error categories occurred.  Consider correcting or noting.
   ************* Nominally Unused Constructions
   ************* ..The nominally unused constructions warning is provided to alert you to potential conditions that can cause
   ************* ..extra time during simulation. Each construction is calculated by the algorithm indicated in the HeatBalanceAlgorithm
   ************* ..object. You may remove the constructions indicated (when you use the DisplayExtraWarnings option).
   *************
   ************* EnergyPlus Warmup Error Summary. During Warmup: 0 Warning; 0 Severe Errors.
   ************* EnergyPlus Sizing Error Summary. During Sizing: 3 Warning; 0 Severe Errors.
   ************* EnergyPlus Completed Successfully-- 4 Warning; 0 Severe Errors; Elapsed Time=00hr 00min 29.90sec


=====================================================================================================================
Input File:     W:\IBPSA Windows Paper\runs\Sacramento_highMass_interior_4inWall_6inSlab - window 4 - model 2.idf
Weather File:   C:\Users\christiankohler\Documents\EnergyStar\weather\ITA_Roma-Fiumicino.162420_IGDG.epw
Output Files:   W:\IBPSA Windows Paper\runs\Ouput\Sacramento_highMass_interior_4inWall_6inSlab - window 4 - model 2\Sacramento_highMass_interior_4inWall_6inSlab - window 4 - model 2
Output Time:    1/31/19 12:09:42 PM 
Counter:         1 
---------------------------------------------------------------------------------------------------------------------
Program Version,EnergyPlus, Version 9.0.1-bb7ca4f0da, YMD=2019.01.31 12:08,
   ************* Beginning Zone Sizing Calculations
   ** Warning ** Weather file location will be used rather than entered (IDF) Location object.
   **   ~~~   ** ..Location object=SACRAMENTO METROPOLITAN AP_CA_USA DESIGN_CONDITIONS
   **   ~~~   ** ..Weather File Location=Roma-Fiumicino - ITA IGDG WMO#=162420
   **   ~~~   ** ..due to location differences, Latitude difference=[3.10] degrees, Longitude difference=[133.81] degrees.
   **   ~~~   ** ..Time Zone difference=[9.0] hour(s), Elevation difference=[57.14] percent, [4.00] meters.
   ** Warning ** CalculateZoneVolume: 1 zone is not fully enclosed. For more details use:  Output:Diagnostics,DisplayExtrawarnings; 
   ** Warning ** CheckUsedConstructions: There are 12 nominally unused constructions in input.
   **   ~~~   ** For explicit details on each unused construction, use Output:Diagnostics,DisplayExtraWarnings;
   ************* Beginning System Sizing Calculations
   ** Warning ** Check input. Pump nominal power or motor efficiency is set to 0, for pump=MAINS PRESSURE_UNIT1
   ************* Testing Individual Branch Integrity
   ************* All Branches passed integrity testing
   ************* Testing Individual Supply Air Path Integrity
   ************* All Supply Air Paths passed integrity testing
   ************* Testing Individual Return Air Path Integrity
   ************* All Return Air Paths passed integrity testing
   ************* No node connection errors were found.
   ************* Beginning Simulation
   ************* Simulation Error Summary *************
   ************* There are 21 unused schedules in input.
   ************* There are 14 unused week schedules in input.
   ************* There are 14 unused day schedules in input.
   ************* Use Output:Diagnostics,DisplayUnusedSchedules; to see them.
   *************
   ************* ===== Final Error Summary =====
   ************* The following error categories occurred.  Consider correcting or noting.
   ************* Nominally Unused Constructions
   ************* ..The nominally unused constructions warning is provided to alert you to potential conditions that can cause
   ************* ..extra time during simulation. Each construction is calculated by the algorithm indicated in the HeatBalanceAlgorithm
   ************* ..object. You may remove the constructions indicated (when you use the DisplayExtraWarnings option).
   *************
   ************* EnergyPlus Warmup Error Summary. During Warmup: 0 Warning; 0 Severe Errors.
   ************* EnergyPlus Sizing Error Summary. During Sizing: 3 Warning; 0 Severe Errors.
   ************* EnergyPlus Completed Successfully-- 4 Warning; 0 Severe Errors; Elapsed Time=00hr 00min 53.62sec


=====================================================================================================================
Input File:     W:\IBPSA Windows Paper\runs\Sacramento_highMass_interior_4inWall_6inSlab - window 4 - model 5.idf
Weather File:   C:\Users\christiankohler\Documents\EnergyStar\weather\ITA_Roma-Fiumicino.162420_IGDG.epw
Output Files:   W:\IBPSA Windows Paper\runs\Ouput\Sacramento_highMass_interior_4inWall_6inSlab - window 4 - model 5\Sacramento_highMass_interior_4inWall_6inSlab - window 4 - model 5
Output Time:    1/31/19 12:10:31 PM 
Counter:         1 
---------------------------------------------------------------------------------------------------------------------
Program Version,EnergyPlus, Version 9.0.1-bb7ca4f0da, YMD=2019.01.31 12:10,
   ************* Beginning Zone Sizing Calculations
   ** Warning ** Weather file location will be used rather than entered (IDF) Location object.
   **   ~~~   ** ..Location object=SACRAMENTO METROPOLITAN AP_CA_USA DESIGN_CONDITIONS
   **   ~~~   ** ..Weather File Location=Roma-Fiumicino - ITA IGDG WMO#=162420
   **   ~~~   ** ..due to location differences, Latitude difference=[3.10] degrees, Longitude difference=[133.81] degrees.
   **   ~~~   ** ..Time Zone difference=[9.0] hour(s), Elevation difference=[57.14] percent, [4.00] meters.
   ** Warning ** CalculateZoneVolume: 1 zone is not fully enclosed. For more details use:  Output:Diagnostics,DisplayExtrawarnings; 
   ** Warning ** CheckUsedConstructions: There are 12 nominally unused constructions in input.
   **   ~~~   ** For explicit details on each unused construction, use Output:Diagnostics,DisplayExtraWarnings;
   ************* Beginning System Sizing Calculations
   ** Warning ** Check input. Pump nominal power or motor efficiency is set to 0, for pump=MAINS PRESSURE_UNIT1
   ************* Testing Individual Branch Integrity
   ************* All Branches passed integrity testing
   ************* Testing Individual Supply Air Path Integrity
   ************* All Supply Air Paths passed integrity testing
   ************* Testing Individual Return Air Path Integrity
   ************* All Return Air Paths passed integrity testing
   ************* No node connection errors were found.
   ************* Beginning Simulation
   ************* Simulation Error Summary *************
   ************* There are 21 unused schedules in input.
   ************* There are 14 unused week schedules in input.
   ************* There are 14 unused day schedules in input.
   ************* Use Output:Diagnostics,DisplayUnusedSchedules; to see them.
   *************
   ************* ===== Final Error Summary =====
   ************* The following error categories occurred.  Consider correcting or noting.
   ************* Nominally Unused Constructions
   ************* ..The nominally unused constructions warning is provided to alert you to potential conditions that can cause
   ************* ..extra time during simulation. Each construction is calculated by the algorithm indicated in the HeatBalanceAlgorithm
   ************* ..object. You may remove the constructions indicated (when you use the DisplayExtraWarnings option).
   *************
   ************* EnergyPlus Warmup Error Summary. During Warmup: 0 Warning; 0 Severe Errors.
   ************* EnergyPlus Sizing Error Summary. During Sizing: 3 Warning; 0 Severe Errors.
   ************* EnergyPlus Completed Successfully-- 4 Warning; 0 Severe Errors; Elapsed Time=00hr 00min 27.17sec


=====================================================================================================================
Input File:     W:\IBPSA Windows Paper\runs\Sacramento_highMass_interior_4inWall_6inSlab - window 3 - model 1.idf
Weather File:   C:\Users\christiankohler\Documents\EnergyStar\weather\ITA_Roma-Fiumicino.162420_IGDG.epw
Output Files:   W:\IBPSA Windows Paper\runs\Ouput\Sacramento_highMass_interior_4inWall_6inSlab - window 3 - model 1\Sacramento_highMass_interior_4inWall_6inSlab - window 3 - model 1
Output Time:    1/31/19 12:10:35 PM 
Counter:         1 
---------------------------------------------------------------------------------------------------------------------
Program Version,EnergyPlus, Version 9.0.1-bb7ca4f0da, YMD=2019.01.31 12:08,
   ************* Beginning Zone Sizing Calculations
   ** Warning ** Weather file location will be used rather than entered (IDF) Location object.
   **   ~~~   ** ..Location object=SACRAMENTO METROPOLITAN AP_CA_USA DESIGN_CONDITIONS
   **   ~~~   ** ..Weather File Location=Roma-Fiumicino - ITA IGDG WMO#=162420
   **   ~~~   ** ..due to location differences, Latitude difference=[3.10] degrees, Longitude difference=[133.81] degrees.
   **   ~~~   ** ..Time Zone difference=[9.0] hour(s), Elevation difference=[57.14] percent, [4.00] meters.
   ** Warning ** CalculateZoneVolume: 1 zone is not fully enclosed. For more details use:  Output:Diagnostics,DisplayExtrawarnings; 
   ** Warning ** CheckUsedConstructions: There are 12 nominally unused constructions in input.
   **   ~~~   ** For explicit details on each unused construction, use Output:Diagnostics,DisplayExtraWarnings;
   ************* Beginning System Sizing Calculations
   ** Warning ** Check input. Pump nominal power or motor efficiency is set to 0, for pump=MAINS PRESSURE_UNIT1
   ************* Testing Individual Branch Integrity
   ************* All Branches passed integrity testing
   ************* Testing Individual Supply Air Path Integrity
   ************* All Supply Air Paths passed integrity testing
   ************* Testing Individual Return Air Path Integrity
   ************* All Return Air Paths passed integrity testing
   ************* No node connection errors were found.
   ************* Beginning Simulation
   ************* Simulation Error Summary *************
   ************* There are 21 unused schedules in input.
   ************* There are 14 unused week schedules in input.
   ************* There are 14 unused day schedules in input.
   ************* Use Output:Diagnostics,DisplayUnusedSchedules; to see them.
   *************
   ************* ===== Final Error Summary =====
   ************* The following error categories occurred.  Consider correcting or noting.
   ************* Nominally Unused Constructions
   ************* ..The nominally unused constructions warning is provided to alert you to potential conditions that can cause
   ************* ..extra time during simulation. Each construction is calculated by the algorithm indicated in the HeatBalanceAlgorithm
   ************* ..object. You may remove the constructions indicated (when you use the DisplayExtraWarnings option).
   *************
   ************* EnergyPlus Warmup Error Summary. During Warmup: 0 Warning; 0 Severe Errors.
   ************* EnergyPlus Sizing Error Summary. During Sizing: 3 Warning; 0 Severe Errors.
   ************* EnergyPlus Completed Successfully-- 4 Warning; 0 Severe Errors; Elapsed Time=00hr 01min 40.49sec


=====================================================================================================================
Input File:     W:\IBPSA Windows Paper\runs\Sacramento_highMass_interior_4inWall_6inSlab - window 4 - model 4.idf
Weather File:   C:\Users\christiankohler\Documents\EnergyStar\weather\ITA_Roma-Fiumicino.162420_IGDG.epw
Output Files:   W:\IBPSA Windows Paper\runs\Ouput\Sacramento_highMass_interior_4inWall_6inSlab - window 4 - model 4\Sacramento_highMass_interior_4inWall_6inSlab - window 4 - model 4
Output Time:    1/31/19 12:10:37 PM 
Counter:         1 
---------------------------------------------------------------------------------------------------------------------
Program Version,EnergyPlus, Version 9.0.1-bb7ca4f0da, YMD=2019.01.31 12:10,
   ************* Beginning Zone Sizing Calculations
   ** Warning ** Weather file location will be used rather than entered (IDF) Location object.
   **   ~~~   ** ..Location object=SACRAMENTO METROPOLITAN AP_CA_USA DESIGN_CONDITIONS
   **   ~~~   ** ..Weather File Location=Roma-Fiumicino - ITA IGDG WMO#=162420
   **   ~~~   ** ..due to location differences, Latitude difference=[3.10] degrees, Longitude difference=[133.81] degrees.
   **   ~~~   ** ..Time Zone difference=[9.0] hour(s), Elevation difference=[57.14] percent, [4.00] meters.
   ** Warning ** CalculateZoneVolume: 1 zone is not fully enclosed. For more details use:  Output:Diagnostics,DisplayExtrawarnings; 
   ** Warning ** CheckUsedConstructions: There are 12 nominally unused constructions in input.
   **   ~~~   ** For explicit details on each unused construction, use Output:Diagnostics,DisplayExtraWarnings;
   ************* Beginning System Sizing Calculations
   ** Warning ** Check input. Pump nominal power or motor efficiency is set to 0, for pump=MAINS PRESSURE_UNIT1
   ************* Testing Individual Branch Integrity
   ************* All Branches passed integrity testing
   ************* Testing Individual Supply Air Path Integrity
   ************* All Supply Air Paths passed integrity testing
   ************* Testing Individual Return Air Path Integrity
   ************* All Return Air Paths passed integrity testing
   ************* No node connection errors were found.
   ************* Beginning Simulation
   ************* Simulation Error Summary *************
   ************* There are 21 unused schedules in input.
   ************* There are 14 unused week schedules in input.
   ************* There are 14 unused day schedules in input.
   ************* Use Output:Diagnostics,DisplayUnusedSchedules; to see them.
   *************
   ************* ===== Final Error Summary =====
   ************* The following error categories occurred.  Consider correcting or noting.
   ************* Nominally Unused Constructions
   ************* ..The nominally unused constructions warning is provided to alert you to potential conditions that can cause
   ************* ..extra time during simulation. Each construction is calculated by the algorithm indicated in the HeatBalanceAlgorithm
   ************* ..object. You may remove the constructions indicated (when you use the DisplayExtraWarnings option).
   *************
   ************* EnergyPlus Warmup Error Summary. During Warmup: 0 Warning; 0 Severe Errors.
   ************* EnergyPlus Sizing Error Summary. During Sizing: 3 Warning; 0 Severe Errors.
   ************* EnergyPlus Completed Successfully-- 4 Warning; 0 Severe Errors; Elapsed Time=00hr 00min 30.59sec


=====================================================================================================================
Input File:     W:\IBPSA Windows Paper\runs\Sacramento_highMass_interior_4inWall_6inSlab - window 4 - model 6.idf
Weather File:   C:\Users\christiankohler\Documents\EnergyStar\weather\ITA_Roma-Fiumicino.162420_IGDG.epw
Output Files:   W:\IBPSA Windows Paper\runs\Ouput\Sacramento_highMass_interior_4inWall_6inSlab - window 4 - model 6\Sacramento_highMass_interior_4inWall_6inSlab - window 4 - model 6
Output Time:    1/31/19 12:10:40 PM 
Counter:         1 
---------------------------------------------------------------------------------------------------------------------
Program Version,EnergyPlus, Version 9.0.1-bb7ca4f0da, YMD=2019.01.31 12:10,
   ************* Beginning Zone Sizing Calculations
   ** Warning ** Weather file location will be used rather than entered (IDF) Location object.
   **   ~~~   ** ..Location object=SACRAMENTO METROPOLITAN AP_CA_USA DESIGN_CONDITIONS
   **   ~~~   ** ..Weather File Location=Roma-Fiumicino - ITA IGDG WMO#=162420
   **   ~~~   ** ..due to location differences, Latitude difference=[3.10] degrees, Longitude difference=[133.81] degrees.
   **   ~~~   ** ..Time Zone difference=[9.0] hour(s), Elevation difference=[57.14] percent, [4.00] meters.
   ** Warning ** GetSurfaceData: Window dimensions differ from Window 5/6 data file dimensions, 8 times.
   **   ~~~   ** This will affect the frame heat transfer calculation if the frame in the Data File entry
   **   ~~~   ** is not uniform, i.e., has sections with different geometry and/or thermal properties.
   **   ~~~   ** For explicit details on each window, use Output:Diagnostics,DisplayExtraWarnings;
   ** Warning ** CalculateZoneVolume: 1 zone is not fully enclosed. For more details use:  Output:Diagnostics,DisplayExtrawarnings; 
   ** Warning ** CheckUsedConstructions: There are 12 nominally unused constructions in input.
   **   ~~~   ** For explicit details on each unused construction, use Output:Diagnostics,DisplayExtraWarnings;
   ************* Beginning System Sizing Calculations
   ** Warning ** Check input. Pump nominal power or motor efficiency is set to 0, for pump=MAINS PRESSURE_UNIT1
   ************* Testing Individual Branch Integrity
   ************* All Branches passed integrity testing
   ************* Testing Individual Supply Air Path Integrity
   ************* All Supply Air Paths passed integrity testing
   ************* Testing Individual Return Air Path Integrity
   ************* All Return Air Paths passed integrity testing
   ************* No node connection errors were found.
   ************* Beginning Simulation
   ************* Simulation Error Summary *************
   ************* There are 21 unused schedules in input.
   ************* There are 14 unused week schedules in input.
   ************* There are 14 unused day schedules in input.
   ************* Use Output:Diagnostics,DisplayUnusedSchedules; to see them.
   *************
   ************* ===== Final Error Summary =====
   ************* The following error categories occurred.  Consider correcting or noting.
   ************* Nominally Unused Constructions
   ************* ..The nominally unused constructions warning is provided to alert you to potential conditions that can cause
   ************* ..extra time during simulation. Each construction is calculated by the algorithm indicated in the HeatBalanceAlgorithm
   ************* ..object. You may remove the constructions indicated (when you use the DisplayExtraWarnings option).
   *************
   ************* EnergyPlus Warmup Error Summary. During Warmup: 0 Warning; 0 Severe Errors.
   ************* EnergyPlus Sizing Error Summary. During Sizing: 3 Warning; 0 Severe Errors.
   ************* EnergyPlus Completed Successfully-- 4 Warning; 0 Severe Errors; Elapsed Time=00hr 00min 30.30sec


=====================================================================================================================
Input File:     W:\IBPSA Windows Paper\runs\Sacramento_highMass_interior_4inWall_6inSlab - window 3 - model 2.idf
Weather File:   C:\Users\christiankohler\Documents\EnergyStar\weather\ITA_Roma-Fiumicino.162420_IGDG.epw
Output Files:   W:\IBPSA Windows Paper\runs\Ouput\Sacramento_highMass_interior_4inWall_6inSlab - window 3 - model 2\Sacramento_highMass_interior_4inWall_6inSlab - window 3 - model 2
Output Time:    1/31/19 12:10:52 PM 
Counter:         1 
---------------------------------------------------------------------------------------------------------------------
Program Version,EnergyPlus, Version 9.0.1-bb7ca4f0da, YMD=2019.01.31 12:10,
   ************* Beginning Zone Sizing Calculations
   ** Warning ** Weather file location will be used rather than entered (IDF) Location object.
   **   ~~~   ** ..Location object=SACRAMENTO METROPOLITAN AP_CA_USA DESIGN_CONDITIONS
   **   ~~~   ** ..Weather File Location=Roma-Fiumicino - ITA IGDG WMO#=162420
   **   ~~~   ** ..due to location differences, Latitude difference=[3.10] degrees, Longitude difference=[133.81] degrees.
   **   ~~~   ** ..Time Zone difference=[9.0] hour(s), Elevation difference=[57.14] percent, [4.00] meters.
   ** Warning ** CalculateZoneVolume: 1 zone is not fully enclosed. For more details use:  Output:Diagnostics,DisplayExtrawarnings; 
   ** Warning ** CheckUsedConstructions: There are 12 nominally unused constructions in input.
   **   ~~~   ** For explicit details on each unused construction, use Output:Diagnostics,DisplayExtraWarnings;
   ************* Beginning System Sizing Calculations
   ** Warning ** Check input. Pump nominal power or motor efficiency is set to 0, for pump=MAINS PRESSURE_UNIT1
   ************* Testing Individual Branch Integrity
   ************* All Branches passed integrity testing
   ************* Testing Individual Supply Air Path Integrity
   ************* All Supply Air Paths passed integrity testing
   ************* Testing Individual Return Air Path Integrity
   ************* All Return Air Paths passed integrity testing
   ************* No node connection errors were found.
   ************* Beginning Simulation
   ************* Simulation Error Summary *************
   ************* There are 21 unused schedules in input.
   ************* There are 14 unused week schedules in input.
   ************* There are 14 unused day schedules in input.
   ************* Use Output:Diagnostics,DisplayUnusedSchedules; to see them.
   *************
   ************* ===== Final Error Summary =====
   ************* The following error categories occurred.  Consider correcting or noting.
   ************* Nominally Unused Constructions
   ************* ..The nominally unused constructions warning is provided to alert you to potential conditions that can cause
   ************* ..extra time during simulation. Each construction is calculated by the algorithm indicated in the HeatBalanceAlgorithm
   ************* ..object. You may remove the constructions indicated (when you use the DisplayExtraWarnings option).
   *************
   ************* EnergyPlus Warmup Error Summary. During Warmup: 0 Warning; 0 Severe Errors.
   ************* EnergyPlus Sizing Error Summary. During Sizing: 3 Warning; 0 Severe Errors.
   ************* EnergyPlus Completed Successfully-- 4 Warning; 0 Severe Errors; Elapsed Time=00hr 00min 43.22sec


=====================================================================================================================
Input File:     W:\IBPSA Windows Paper\runs\Sacramento_highMass_interior_4inWall_6inSlab - window 3 - model 3.idf
Weather File:   C:\Users\christiankohler\Documents\EnergyStar\weather\ITA_Roma-Fiumicino.162420_IGDG.epw
Output Files:   W:\IBPSA Windows Paper\runs\Ouput\Sacramento_highMass_interior_4inWall_6inSlab - window 3 - model 3\Sacramento_highMass_interior_4inWall_6inSlab - window 3 - model 3
Output Time:    1/31/19 12:10:54 PM 
Counter:         1 
---------------------------------------------------------------------------------------------------------------------
Program Version,EnergyPlus, Version 9.0.1-bb7ca4f0da, YMD=2019.01.31 12:10,
   ************* Beginning Zone Sizing Calculations
   ** Warning ** Weather file location will be used rather than entered (IDF) Location object.
   **   ~~~   ** ..Location object=SACRAMENTO METROPOLITAN AP_CA_USA DESIGN_CONDITIONS
   **   ~~~   ** ..Weather File Location=Roma-Fiumicino - ITA IGDG WMO#=162420
   **   ~~~   ** ..due to location differences, Latitude difference=[3.10] degrees, Longitude difference=[133.81] degrees.
   **   ~~~   ** ..Time Zone difference=[9.0] hour(s), Elevation difference=[57.14] percent, [4.00] meters.
   ** Warning ** CalculateZoneVolume: 1 zone is not fully enclosed. For more details use:  Output:Diagnostics,DisplayExtrawarnings; 
   ** Warning ** CheckUsedConstructions: There are 12 nominally unused constructions in input.
   **   ~~~   ** For explicit details on each unused construction, use Output:Diagnostics,DisplayExtraWarnings;
   ************* Beginning System Sizing Calculations
   ** Warning ** Check input. Pump nominal power or motor efficiency is set to 0, for pump=MAINS PRESSURE_UNIT1
   ************* Testing Individual Branch Integrity
   ************* All Branches passed integrity testing
   ************* Testing Individual Supply Air Path Integrity
   ************* All Supply Air Paths passed integrity testing
   ************* Testing Individual Return Air Path Integrity
   ************* All Return Air Paths passed integrity testing
   ************* No node connection errors were found.
   ************* Beginning Simulation
   ************* Simulation Error Summary *************
   ************* There are 21 unused schedules in input.
   ************* There are 14 unused week schedules in input.
   ************* There are 14 unused day schedules in input.
   ************* Use Output:Diagnostics,DisplayUnusedSchedules; to see them.
   *************
   ************* ===== Final Error Summary =====
   ************* The following error categories occurred.  Consider correcting or noting.
   ************* Nominally Unused Constructions
   ************* ..The nominally unused constructions warning is provided to alert you to potential conditions that can cause
   ************* ..extra time during simulation. Each construction is calculated by the algorithm indicated in the HeatBalanceAlgorithm
   ************* ..object. You may remove the constructions indicated (when you use the DisplayExtraWarnings option).
   *************
   ************* EnergyPlus Warmup Error Summary. During Warmup: 0 Warning; 0 Severe Errors.
   ************* EnergyPlus Sizing Error Summary. During Sizing: 3 Warning; 0 Severe Errors.
   ************* EnergyPlus Completed Successfully-- 4 Warning; 0 Severe Errors; Elapsed Time=00hr 00min 28.69sec


=====================================================================================================================
Input File:     W:\IBPSA Windows Paper\runs\Sacramento_4inSlab - window 5 - model 5.idf
Weather File:   C:\Users\christiankohler\Documents\EnergyStar\weather\ITA_Roma-Fiumicino.162420_IGDG.epw
Output Files:   W:\IBPSA Windows Paper\runs\Ouput\Sacramento_4inSlab - window 5 - model 5\Sacramento_4inSlab - window 5 - model 5
Output Time:    1/31/19 12:11:45 PM 
Counter:         1 
---------------------------------------------------------------------------------------------------------------------
Program Version,EnergyPlus, Version 9.0.1-bb7ca4f0da, YMD=2019.01.31 12:11,
   ** Warning ** Output:PreprocessorMessage="GroundTempCalc - Slab" has the following Warning condition:
   **   ~~~   ** Slab thickness [0.100 m] reset to 0.122 m  for computational stability.
   ************* Beginning Zone Sizing Calculations
   ** Warning ** Weather file location will be used rather than entered (IDF) Location object.
   **   ~~~   ** ..Location object=SACRAMENTO METROPOLITAN AP_CA_USA DESIGN_CONDITIONS
   **   ~~~   ** ..Weather File Location=Roma-Fiumicino - ITA IGDG WMO#=162420
   **   ~~~   ** ..due to location differences, Latitude difference=[3.10] degrees, Longitude difference=[133.81] degrees.
   **   ~~~   ** ..Time Zone difference=[9.0] hour(s), Elevation difference=[57.14] percent, [4.00] meters.
   ** Warning ** CalculateZoneVolume: 1 zone is not fully enclosed. For more details use:  Output:Diagnostics,DisplayExtrawarnings; 
   ** Warning ** CheckUsedConstructions: There are 12 nominally unused constructions in input.
   **   ~~~   ** For explicit details on each unused construction, use Output:Diagnostics,DisplayExtraWarnings;
   ************* Beginning System Sizing Calculations
   ** Warning ** Check input. Pump nominal power or motor efficiency is set to 0, for pump=MAINS PRESSURE_UNIT1
   ************* Testing Individual Branch Integrity
   ************* All Branches passed integrity testing
   ************* Testing Individual Supply Air Path Integrity
   ************* All Supply Air Paths passed integrity testing
   ************* Testing Individual Return Air Path Integrity
   ************* All Return Air Paths passed integrity testing
   ************* No node connection errors were found.
   ************* Beginning Simulation
   ************* Simulation Error Summary *************
   ************* There are 21 unused schedules in input.
   ************* There are 14 unused week schedules in input.
   ************* There are 14 unused day schedules in input.
   ************* Use Output:Diagnostics,DisplayUnusedSchedules; to see them.
   *************
   ************* ===== Final Error Summary =====
   ************* The following error categories occurred.  Consider correcting or noting.
   ************* Nominally Unused Constructions
   ************* ..The nominally unused constructions warning is provided to alert you to potential conditions that can cause
   ************* ..extra time during simulation. Each construction is calculated by the algorithm indicated in the HeatBalanceAlgorithm
   ************* ..object. You may remove the constructions indicated (when you use the DisplayExtraWarnings option).
   *************
   ************* EnergyPlus Warmup Error Summary. During Warmup: 0 Warning; 0 Severe Errors.
   ************* EnergyPlus Sizing Error Summary. During Sizing: 3 Warning; 0 Severe Errors.
   ************* EnergyPlus Completed Successfully-- 5 Warning; 0 Severe Errors; Elapsed Time=00hr 00min 25.69sec


=====================================================================================================================
Input File:     W:\IBPSA Windows Paper\runs\Minneapolis_4inSlab - window 1 - model 6.idf
Weather File:   C:\Users\christiankohler\Documents\EnergyStar\weather\USA_MN_Minneapolis-St.Paul.Intl.AP.726580_TMY3.epw
Output Files:   W:\IBPSA Windows Paper\runs\Ouput\Minneapolis_4inSlab - window 1 - model 6\Minneapolis_4inSlab - window 1 - model 6
Output Time:    1/31/19 12:11:47 PM 
Counter:         1 
---------------------------------------------------------------------------------------------------------------------
Program Version,EnergyPlus, Version 9.0.1-bb7ca4f0da, YMD=2019.01.31 12:11,
   ** Warning ** Output:PreprocessorMessage="GroundTempCalc - Slab" has the following Warning condition:
   **   ~~~   ** Slab thickness [0.100 m] reset to 0.122 m  for computational stability.
   ************* Beginning Zone Sizing Calculations
   ** Warning ** GetSurfaceData: Window dimensions differ from Window 5/6 data file dimensions, 8 times.
   **   ~~~   ** This will affect the frame heat transfer calculation if the frame in the Data File entry
   **   ~~~   ** is not uniform, i.e., has sections with different geometry and/or thermal properties.
   **   ~~~   ** For explicit details on each window, use Output:Diagnostics,DisplayExtraWarnings;
   ** Warning ** CalculateZoneVolume: 1 zone is not fully enclosed. For more details use:  Output:Diagnostics,DisplayExtrawarnings; 
   ** Warning ** CheckUsedConstructions: There are 12 nominally unused constructions in input.
   **   ~~~   ** For explicit details on each unused construction, use Output:Diagnostics,DisplayExtraWarnings;
   ************* Beginning System Sizing Calculations
   ** Warning ** Check input. Pump nominal power or motor efficiency is set to 0, for pump=MAINS PRESSURE_UNIT1
   ************* Testing Individual Branch Integrity
   ************* All Branches passed integrity testing
   ************* Testing Individual Supply Air Path Integrity
   ************* All Supply Air Paths passed integrity testing
   ************* Testing Individual Return Air Path Integrity
   ************* All Return Air Paths passed integrity testing
   ************* No node connection errors were found.
   ************* Beginning Simulation
   ************* Simulation Error Summary *************
   ************* There are 21 unused schedules in input.
   ************* There are 14 unused week schedules in input.
   ************* There are 14 unused day schedules in input.
   ************* Use Output:Diagnostics,DisplayUnusedSchedules; to see them.
   *************
   ************* ===== Final Error Summary =====
   ************* The following error categories occurred.  Consider correcting or noting.
   ************* Nominally Unused Constructions
   ************* ..The nominally unused constructions warning is provided to alert you to potential conditions that can cause
   ************* ..extra time during simulation. Each construction is calculated by the algorithm indicated in the HeatBalanceAlgorithm
   ************* ..object. You may remove the constructions indicated (when you use the DisplayExtraWarnings option).
   *************
   ************* EnergyPlus Warmup Error Summary. During Warmup: 0 Warning; 0 Severe Errors.
   ************* EnergyPlus Sizing Error Summary. During Sizing: 2 Warning; 0 Severe Errors.
   ************* EnergyPlus Completed Successfully-- 4 Warning; 0 Severe Errors; Elapsed Time=00hr 00min 27.23sec


=====================================================================================================================
Input File:     W:\IBPSA Windows Paper\runs\Sacramento_4inSlab - window 1 - model 4.idf
Weather File:   C:\Users\christiankohler\Documents\EnergyStar\weather\ITA_Roma-Fiumicino.162420_IGDG.epw
Output Files:   W:\IBPSA Windows Paper\runs\Ouput\Sacramento_4inSlab - window 1 - model 4\Sacramento_4inSlab - window 1 - model 4
Output Time:    1/31/19 12:11:49 PM 
Counter:         1 
---------------------------------------------------------------------------------------------------------------------
Program Version,EnergyPlus, Version 9.0.1-bb7ca4f0da, YMD=2019.01.31 12:11,
   ** Warning ** Output:PreprocessorMessage="GroundTempCalc - Slab" has the following Warning condition:
   **   ~~~   ** Slab thickness [0.100 m] reset to 0.122 m  for computational stability.
   ************* Beginning Zone Sizing Calculations
   ** Warning ** Weather file location will be used rather than entered (IDF) Location object.
   **   ~~~   ** ..Location object=SACRAMENTO METROPOLITAN AP_CA_USA DESIGN_CONDITIONS
   **   ~~~   ** ..Weather File Location=Roma-Fiumicino - ITA IGDG WMO#=162420
   **   ~~~   ** ..due to location differences, Latitude difference=[3.10] degrees, Longitude difference=[133.81] degrees.
   **   ~~~   ** ..Time Zone difference=[9.0] hour(s), Elevation difference=[57.14] percent, [4.00] meters.
   ** Warning ** CalculateZoneVolume: 1 zone is not fully enclosed. For more details use:  Output:Diagnostics,DisplayExtrawarnings; 
   ** Warning ** CheckUsedConstructions: There are 12 nominally unused constructions in input.
   **   ~~~   ** For explicit details on each unused construction, use Output:Diagnostics,DisplayExtraWarnings;
   ************* Beginning System Sizing Calculations
   ** Warning ** Check input. Pump nominal power or motor efficiency is set to 0, for pump=MAINS PRESSURE_UNIT1
   ************* Testing Individual Branch Integrity
   ************* All Branches passed integrity testing
   ************* Testing Individual Supply Air Path Integrity
   ************* All Supply Air Paths passed integrity testing
   ************* Testing Individual Return Air Path Integrity
   ************* All Return Air Paths passed integrity testing
   ************* No node connection errors were found.
   ************* Beginning Simulation
   ************* Simulation Error Summary *************
   ************* There are 21 unused schedules in input.
   ************* There are 14 unused week schedules in input.
   ************* There are 14 unused day schedules in input.
   ************* Use Output:Diagnostics,DisplayUnusedSchedules; to see them.
   *************
   ************* ===== Final Error Summary =====
   ************* The following error categories occurred.  Consider correcting or noting.
   ************* Nominally Unused Constructions
   ************* ..The nominally unused constructions warning is provided to alert you to potential conditions that can cause
   ************* ..extra time during simulation. Each construction is calculated by the algorithm indicated in the HeatBalanceAlgorithm
   ************* ..object. You may remove the constructions indicated (when you use the DisplayExtraWarnings option).
   *************
   ************* EnergyPlus Warmup Error Summary. During Warmup: 0 Warning; 0 Severe Errors.
   ************* EnergyPlus Sizing Error Summary. During Sizing: 3 Warning; 0 Severe Errors.
   ************* EnergyPlus Completed Successfully-- 5 Warning; 0 Severe Errors; Elapsed Time=00hr 00min 26.96sec


=====================================================================================================================
Input File:     W:\IBPSA Windows Paper\runs\Sacramento_highMass_interior_4inWall_6inSlab - window 4 - model 1.idf
Weather File:   C:\Users\christiankohler\Documents\EnergyStar\weather\ITA_Roma-Fiumicino.162420_IGDG.epw
Output Files:   W:\IBPSA Windows Paper\runs\Ouput\Sacramento_highMass_interior_4inWall_6inSlab - window 4 - model 1\Sacramento_highMass_interior_4inWall_6inSlab - window 4 - model 1
Output Time:    1/31/19 12:11:58 PM 
Counter:         1 
---------------------------------------------------------------------------------------------------------------------
Program Version,EnergyPlus, Version 9.0.1-bb7ca4f0da, YMD=2019.01.31 12:08,
   ************* Beginning Zone Sizing Calculations
   ** Warning ** Weather file location will be used rather than entered (IDF) Location object.
   **   ~~~   ** ..Location object=SACRAMENTO METROPOLITAN AP_CA_USA DESIGN_CONDITIONS
   **   ~~~   ** ..Weather File Location=Roma-Fiumicino - ITA IGDG WMO#=162420
   **   ~~~   ** ..due to location differences, Latitude difference=[3.10] degrees, Longitude difference=[133.81] degrees.
   **   ~~~   ** ..Time Zone difference=[9.0] hour(s), Elevation difference=[57.14] percent, [4.00] meters.
   ** Warning ** CalculateZoneVolume: 1 zone is not fully enclosed. For more details use:  Output:Diagnostics,DisplayExtrawarnings; 
   ** Warning ** CheckUsedConstructions: There are 12 nominally unused constructions in input.
   **   ~~~   ** For explicit details on each unused construction, use Output:Diagnostics,DisplayExtraWarnings;
   ************* Beginning System Sizing Calculations
   ** Warning ** Check input. Pump nominal power or motor efficiency is set to 0, for pump=MAINS PRESSURE_UNIT1
   ************* Testing Individual Branch Integrity
   ************* All Branches passed integrity testing
   ************* Testing Individual Supply Air Path Integrity
   ************* All Supply Air Paths passed integrity testing
   ************* Testing Individual Return Air Path Integrity
   ************* All Return Air Paths passed integrity testing
   ************* No node connection errors were found.
   ************* Beginning Simulation
   ************* Simulation Error Summary *************
   ************* There are 21 unused schedules in input.
   ************* There are 14 unused week schedules in input.
   ************* There are 14 unused day schedules in input.
   ************* Use Output:Diagnostics,DisplayUnusedSchedules; to see them.
   *************
   ************* ===== Final Error Summary =====
   ************* The following error categories occurred.  Consider correcting or noting.
   ************* Nominally Unused Constructions
   ************* ..The nominally unused constructions warning is provided to alert you to potential conditions that can cause
   ************* ..extra time during simulation. Each construction is calculated by the algorithm indicated in the HeatBalanceAlgorithm
   ************* ..object. You may remove the constructions indicated (when you use the DisplayExtraWarnings option).
   *************
   ************* EnergyPlus Warmup Error Summary. During Warmup: 0 Warning; 0 Severe Errors.
   ************* EnergyPlus Sizing Error Summary. During Sizing: 3 Warning; 0 Severe Errors.
   ************* EnergyPlus Completed Successfully-- 4 Warning; 0 Severe Errors; Elapsed Time=00hr 03min  4.01sec


=====================================================================================================================
Input File:     W:\IBPSA Windows Paper\runs\Phoenix_4inSlab - window 5 - model 6.idf
Weather File:   C:\Users\christiankohler\Documents\EnergyStar\weather\USA_AZ_Phoenix-Sky.Harbor.Intl.AP.722780_TMY3.epw
Output Files:   W:\IBPSA Windows Paper\runs\Ouput\Phoenix_4inSlab - window 5 - model 6\Phoenix_4inSlab - window 5 - model 6
Output Time:    1/31/19 12:11:59 PM 
Counter:         1 
---------------------------------------------------------------------------------------------------------------------
Program Version,EnergyPlus, Version 9.0.1-bb7ca4f0da, YMD=2019.01.31 12:11,
   ** Warning ** Output:PreprocessorMessage="GroundTempCalc - Slab" has the following Warning condition:
   **   ~~~   ** Slab thickness [0.100 m] reset to 0.122 m  for computational stability.
   ************* Beginning Zone Sizing Calculations
   ** Warning ** GetSurfaceData: Window dimensions differ from Window 5/6 data file dimensions, 8 times.
   **   ~~~   ** This will affect the frame heat transfer calculation if the frame in the Data File entry
   **   ~~~   ** is not uniform, i.e., has sections with different geometry and/or thermal properties.
   **   ~~~   ** For explicit details on each window, use Output:Diagnostics,DisplayExtraWarnings;
   ** Warning ** CalculateZoneVolume: 1 zone is not fully enclosed. For more details use:  Output:Diagnostics,DisplayExtrawarnings; 
   ** Warning ** CheckUsedConstructions: There are 12 nominally unused constructions in input.
   **   ~~~   ** For explicit details on each unused construction, use Output:Diagnostics,DisplayExtraWarnings;
   ************* Beginning System Sizing Calculations
   ** Warning ** Check input. Pump nominal power or motor efficiency is set to 0, for pump=MAINS PRESSURE_UNIT1
   ************* Testing Individual Branch Integrity
   ************* All Branches passed integrity testing
   ************* Testing Individual Supply Air Path Integrity
   ************* All Supply Air Paths passed integrity testing
   ************* Testing Individual Return Air Path Integrity
   ************* All Return Air Paths passed integrity testing
   ************* No node connection errors were found.
   ************* Beginning Simulation
   ************* Simulation Error Summary *************
   ************* There are 21 unused schedules in input.
   ************* There are 14 unused week schedules in input.
   ************* There are 14 unused day schedules in input.
   ************* Use Output:Diagnostics,DisplayUnusedSchedules; to see them.
   *************
   ************* ===== Final Error Summary =====
   ************* The following error categories occurred.  Consider correcting or noting.
   ************* Nominally Unused Constructions
   ************* ..The nominally unused constructions warning is provided to alert you to potential conditions that can cause
   ************* ..extra time during simulation. Each construction is calculated by the algorithm indicated in the HeatBalanceAlgorithm
   ************* ..object. You may remove the constructions indicated (when you use the DisplayExtraWarnings option).
   *************
   ************* EnergyPlus Warmup Error Summary. During Warmup: 0 Warning; 0 Severe Errors.
   ************* EnergyPlus Sizing Error Summary. During Sizing: 2 Warning; 0 Severe Errors.
   ************* EnergyPlus Completed Successfully-- 4 Warning; 0 Severe Errors; Elapsed Time=00hr 00min 45.08sec


=====================================================================================================================
Input File:     W:\IBPSA Windows Paper\runs\Phoenix_4inSlab - window 2 - model 2.idf
Weather File:   C:\Users\christiankohler\Documents\EnergyStar\weather\USA_AZ_Phoenix-Sky.Harbor.Intl.AP.722780_TMY3.epw
Output Files:   W:\IBPSA Windows Paper\runs\Ouput\Phoenix_4inSlab - window 2 - model 2\Phoenix_4inSlab - window 2 - model 2
Output Time:    1/31/19 12:12:32 PM 
Counter:         1 
---------------------------------------------------------------------------------------------------------------------
Program Version,EnergyPlus, Version 9.0.1-bb7ca4f0da, YMD=2019.01.31 12:11,
   ** Warning ** Output:PreprocessorMessage="GroundTempCalc - Slab" has the following Warning condition:
   **   ~~~   ** Slab thickness [0.100 m] reset to 0.122 m  for computational stability.
   ************* Beginning Zone Sizing Calculations
   ** Warning ** CalculateZoneVolume: 1 zone is not fully enclosed. For more details use:  Output:Diagnostics,DisplayExtrawarnings; 
   ** Warning ** CheckUsedConstructions: There are 12 nominally unused constructions in input.
   **   ~~~   ** For explicit details on each unused construction, use Output:Diagnostics,DisplayExtraWarnings;
   ************* Beginning System Sizing Calculations
   ** Warning ** Check input. Pump nominal power or motor efficiency is set to 0, for pump=MAINS PRESSURE_UNIT1
   ************* Testing Individual Branch Integrity
   ************* All Branches passed integrity testing
   ************* Testing Individual Supply Air Path Integrity
   ************* All Supply Air Paths passed integrity testing
   ************* Testing Individual Return Air Path Integrity
   ************* All Return Air Paths passed integrity testing
   ************* No node connection errors were found.
   ************* Beginning Simulation
   ************* Simulation Error Summary *************
   ************* There are 21 unused schedules in input.
   ************* There are 14 unused week schedules in input.
   ************* There are 14 unused day schedules in input.
   ************* Use Output:Diagnostics,DisplayUnusedSchedules; to see them.
   *************
   ************* ===== Final Error Summary =====
   ************* The following error categories occurred.  Consider correcting or noting.
   ************* Nominally Unused Constructions
   ************* ..The nominally unused constructions warning is provided to alert you to potential conditions that can cause
   ************* ..extra time during simulation. Each construction is calculated by the algorithm indicated in the HeatBalanceAlgorithm
   ************* ..object. You may remove the constructions indicated (when you use the DisplayExtraWarnings option).
   *************
   ************* EnergyPlus Warmup Error Summary. During Warmup: 0 Warning; 0 Severe Errors.
   ************* EnergyPlus Sizing Error Summary. During Sizing: 2 Warning; 0 Severe Errors.
   ************* EnergyPlus Completed Successfully-- 4 Warning; 0 Severe Errors; Elapsed Time=00hr 00min 56.92sec


=====================================================================================================================
Input File:     W:\IBPSA Windows Paper\runs\Minneapolis_4inSlab - window 2 - model 3.idf
Weather File:   C:\Users\christiankohler\Documents\EnergyStar\weather\USA_MN_Minneapolis-St.Paul.Intl.AP.726580_TMY3.epw
Output Files:   W:\IBPSA Windows Paper\runs\Ouput\Minneapolis_4inSlab - window 2 - model 3\Minneapolis_4inSlab - window 2 - model 3
Output Time:    1/31/19 12:12:47 PM 
Counter:         1 
---------------------------------------------------------------------------------------------------------------------
Program Version,EnergyPlus, Version 9.0.1-bb7ca4f0da, YMD=2019.01.31 12:12,
   ** Warning ** Output:PreprocessorMessage="GroundTempCalc - Slab" has the following Warning condition:
   **   ~~~   ** Slab thickness [0.100 m] reset to 0.122 m  for computational stability.
   ************* Beginning Zone Sizing Calculations
   ** Warning ** CalculateZoneVolume: 1 zone is not fully enclosed. For more details use:  Output:Diagnostics,DisplayExtrawarnings; 
   ** Warning ** CheckUsedConstructions: There are 12 nominally unused constructions in input.
   **   ~~~   ** For explicit details on each unused construction, use Output:Diagnostics,DisplayExtraWarnings;
   ************* Beginning System Sizing Calculations
   ** Warning ** Check input. Pump nominal power or motor efficiency is set to 0, for pump=MAINS PRESSURE_UNIT1
   ************* Testing Individual Branch Integrity
   ************* All Branches passed integrity testing
   ************* Testing Individual Supply Air Path Integrity
   ************* All Supply Air Paths passed integrity testing
   ************* Testing Individual Return Air Path Integrity
   ************* All Return Air Paths passed integrity testing
   ************* No node connection errors were found.
   ************* Beginning Simulation
   ************* Simulation Error Summary *************
   ************* There are 21 unused schedules in input.
   ************* There are 14 unused week schedules in input.
   ************* There are 14 unused day schedules in input.
   ************* Use Output:Diagnostics,DisplayUnusedSchedules; to see them.
   *************
   ************* ===== Final Error Summary =====
   ************* The following error categories occurred.  Consider correcting or noting.
   ************* Nominally Unused Constructions
   ************* ..The nominally unused constructions warning is provided to alert you to potential conditions that can cause
   ************* ..extra time during simulation. Each construction is calculated by the algorithm indicated in the HeatBalanceAlgorithm
   ************* ..object. You may remove the constructions indicated (when you use the DisplayExtraWarnings option).
   *************
   ************* EnergyPlus Warmup Error Summary. During Warmup: 0 Warning; 0 Severe Errors.
   ************* EnergyPlus Sizing Error Summary. During Sizing: 2 Warning; 0 Severe Errors.
   ************* EnergyPlus Completed Successfully-- 4 Warning; 0 Severe Errors; Elapsed Time=00hr 00min 27.46sec


=====================================================================================================================
Input File:     W:\IBPSA Windows Paper\runs\Sacramento_4inSlab - window 2 - model 1.idf
Weather File:   C:\Users\christiankohler\Documents\EnergyStar\weather\ITA_Roma-Fiumicino.162420_IGDG.epw
Output Files:   W:\IBPSA Windows Paper\runs\Ouput\Sacramento_4inSlab - window 2 - model 1\Sacramento_4inSlab - window 2 - model 1
Output Time:    1/31/19 12:13:02 PM 
Counter:         1 
---------------------------------------------------------------------------------------------------------------------
Program Version,EnergyPlus, Version 9.0.1-bb7ca4f0da, YMD=2019.01.31 12:11,
   ** Warning ** Output:PreprocessorMessage="GroundTempCalc - Slab" has the following Warning condition:
   **   ~~~   ** Slab thickness [0.100 m] reset to 0.122 m  for computational stability.
   ************* Beginning Zone Sizing Calculations
   ** Warning ** Weather file location will be used rather than entered (IDF) Location object.
   **   ~~~   ** ..Location object=SACRAMENTO METROPOLITAN AP_CA_USA DESIGN_CONDITIONS
   **   ~~~   ** ..Weather File Location=Roma-Fiumicino - ITA IGDG WMO#=162420
   **   ~~~   ** ..due to location differences, Latitude difference=[3.10] degrees, Longitude difference=[133.81] degrees.
   **   ~~~   ** ..Time Zone difference=[9.0] hour(s), Elevation difference=[57.14] percent, [4.00] meters.
   ** Warning ** CalculateZoneVolume: 1 zone is not fully enclosed. For more details use:  Output:Diagnostics,DisplayExtrawarnings; 
   ** Warning ** CheckUsedConstructions: There are 12 nominally unused constructions in input.
   **   ~~~   ** For explicit details on each unused construction, use Output:Diagnostics,DisplayExtraWarnings;
   ************* Beginning System Sizing Calculations
   ** Warning ** Check input. Pump nominal power or motor efficiency is set to 0, for pump=MAINS PRESSURE_UNIT1
   ************* Testing Individual Branch Integrity
   ************* All Branches passed integrity testing
   ************* Testing Individual Supply Air Path Integrity
   ************* All Supply Air Paths passed integrity testing
   ************* Testing Individual Return Air Path Integrity
   ************* All Return Air Paths passed integrity testing
   ************* No node connection errors were found.
   ************* Beginning Simulation
   ************* Simulation Error Summary *************
   ************* There are 21 unused schedules in input.
   ************* There are 14 unused week schedules in input.
   ************* There are 14 unused day schedules in input.
   ************* Use Output:Diagnostics,DisplayUnusedSchedules; to see them.
   *************
   ************* ===== Final Error Summary =====
   ************* The following error categories occurred.  Consider correcting or noting.
   ************* Nominally Unused Constructions
   ************* ..The nominally unused constructions warning is provided to alert you to potential conditions that can cause
   ************* ..extra time during simulation. Each construction is calculated by the algorithm indicated in the HeatBalanceAlgorithm
   ************* ..object. You may remove the constructions indicated (when you use the DisplayExtraWarnings option).
   *************
   ************* EnergyPlus Warmup Error Summary. During Warmup: 0 Warning; 0 Severe Errors.
   ************* EnergyPlus Sizing Error Summary. During Sizing: 3 Warning; 0 Severe Errors.
   ************* EnergyPlus Completed Successfully-- 5 Warning; 0 Severe Errors; Elapsed Time=00hr 01min 25.22sec


=====================================================================================================================
Input File:     W:\IBPSA Windows Paper\runs\Sacramento_4inSlab - window 1 - model 5.idf
Weather File:   C:\Users\christiankohler\Documents\EnergyStar\weather\ITA_Roma-Fiumicino.162420_IGDG.epw
Output Files:   W:\IBPSA Windows Paper\runs\Ouput\Sacramento_4inSlab - window 1 - model 5\Sacramento_4inSlab - window 1 - model 5
Output Time:    1/31/19 12:13:03 PM 
Counter:         1 
---------------------------------------------------------------------------------------------------------------------
Program Version,EnergyPlus, Version 9.0.1-bb7ca4f0da, YMD=2019.01.31 12:12,
   ** Warning ** Output:PreprocessorMessage="GroundTempCalc - Slab" has the following Warning condition:
   **   ~~~   ** Slab thickness [0.100 m] reset to 0.122 m  for computational stability.
   ************* Beginning Zone Sizing Calculations
   ** Warning ** Weather file location will be used rather than entered (IDF) Location object.
   **   ~~~   ** ..Location object=SACRAMENTO METROPOLITAN AP_CA_USA DESIGN_CONDITIONS
   **   ~~~   ** ..Weather File Location=Roma-Fiumicino - ITA IGDG WMO#=162420
   **   ~~~   ** ..due to location differences, Latitude difference=[3.10] degrees, Longitude difference=[133.81] degrees.
   **   ~~~   ** ..Time Zone difference=[9.0] hour(s), Elevation difference=[57.14] percent, [4.00] meters.
   ** Warning ** CalculateZoneVolume: 1 zone is not fully enclosed. For more details use:  Output:Diagnostics,DisplayExtrawarnings; 
   ** Warning ** CheckUsedConstructions: There are 12 nominally unused constructions in input.
   **   ~~~   ** For explicit details on each unused construction, use Output:Diagnostics,DisplayExtraWarnings;
   ************* Beginning System Sizing Calculations
   ** Warning ** Check input. Pump nominal power or motor efficiency is set to 0, for pump=MAINS PRESSURE_UNIT1
   ************* Testing Individual Branch Integrity
   ************* All Branches passed integrity testing
   ************* Testing Individual Supply Air Path Integrity
   ************* All Supply Air Paths passed integrity testing
   ************* Testing Individual Return Air Path Integrity
   ************* All Return Air Paths passed integrity testing
   ************* No node connection errors were found.
   ************* Beginning Simulation
   ************* Simulation Error Summary *************
   ************* There are 21 unused schedules in input.
   ************* There are 14 unused week schedules in input.
   ************* There are 14 unused day schedules in input.
   ************* Use Output:Diagnostics,DisplayUnusedSchedules; to see them.
   *************
   ************* ===== Final Error Summary =====
   ************* The following error categories occurred.  Consider correcting or noting.
   ************* Nominally Unused Constructions
   ************* ..The nominally unused constructions warning is provided to alert you to potential conditions that can cause
   ************* ..extra time during simulation. Each construction is calculated by the algorithm indicated in the HeatBalanceAlgorithm
   ************* ..object. You may remove the constructions indicated (when you use the DisplayExtraWarnings option).
   *************
   ************* EnergyPlus Warmup Error Summary. During Warmup: 0 Warning; 0 Severe Errors.
   ************* EnergyPlus Sizing Error Summary. During Sizing: 3 Warning; 0 Severe Errors.
   ************* EnergyPlus Completed Successfully-- 5 Warning; 0 Severe Errors; Elapsed Time=00hr 00min 25.45sec


=====================================================================================================================
Input File:     W:\IBPSA Windows Paper\runs\Minneapolis_4inSlab - window 2 - model 2.idf
Weather File:   C:\Users\christiankohler\Documents\EnergyStar\weather\USA_MN_Minneapolis-St.Paul.Intl.AP.726580_TMY3.epw
Output Files:   W:\IBPSA Windows Paper\runs\Ouput\Minneapolis_4inSlab - window 2 - model 2\Minneapolis_4inSlab - window 2 - model 2
Output Time:    1/31/19 12:13:05 PM 
Counter:         1 
---------------------------------------------------------------------------------------------------------------------
Program Version,EnergyPlus, Version 9.0.1-bb7ca4f0da, YMD=2019.01.31 12:12,
   ** Warning ** Output:PreprocessorMessage="GroundTempCalc - Slab" has the following Warning condition:
   **   ~~~   ** Slab thickness [0.100 m] reset to 0.122 m  for computational stability.
   ************* Beginning Zone Sizing Calculations
   ** Warning ** CalculateZoneVolume: 1 zone is not fully enclosed. For more details use:  Output:Diagnostics,DisplayExtrawarnings; 
   ** Warning ** CheckUsedConstructions: There are 12 nominally unused constructions in input.
   **   ~~~   ** For explicit details on each unused construction, use Output:Diagnostics,DisplayExtraWarnings;
   ************* Beginning System Sizing Calculations
   ** Warning ** Check input. Pump nominal power or motor efficiency is set to 0, for pump=MAINS PRESSURE_UNIT1
   ************* Testing Individual Branch Integrity
   ************* All Branches passed integrity testing
   ************* Testing Individual Supply Air Path Integrity
   ************* All Supply Air Paths passed integrity testing
   ************* Testing Individual Return Air Path Integrity
   ************* All Return Air Paths passed integrity testing
   ************* No node connection errors were found.
   ************* Beginning Simulation
   ************* Simulation Error Summary *************
   ************* There are 21 unused schedules in input.
   ************* There are 14 unused week schedules in input.
   ************* There are 14 unused day schedules in input.
   ************* Use Output:Diagnostics,DisplayUnusedSchedules; to see them.
   *************
   ************* ===== Final Error Summary =====
   ************* The following error categories occurred.  Consider correcting or noting.
   ************* Nominally Unused Constructions
   ************* ..The nominally unused constructions warning is provided to alert you to potential conditions that can cause
   ************* ..extra time during simulation. Each construction is calculated by the algorithm indicated in the HeatBalanceAlgorithm
   ************* ..object. You may remove the constructions indicated (when you use the DisplayExtraWarnings option).
   *************
   ************* EnergyPlus Warmup Error Summary. During Warmup: 0 Warning; 0 Severe Errors.
   ************* EnergyPlus Sizing Error Summary. During Sizing: 2 Warning; 0 Severe Errors.
   ************* EnergyPlus Completed Successfully-- 4 Warning; 0 Severe Errors; Elapsed Time=00hr 00min 41.70sec


=====================================================================================================================
Input File:     W:\IBPSA Windows Paper\runs\Phoenix_4inSlab - window 2 - model 3.idf
Weather File:   C:\Users\christiankohler\Documents\EnergyStar\weather\USA_AZ_Phoenix-Sky.Harbor.Intl.AP.722780_TMY3.epw
Output Files:   W:\IBPSA Windows Paper\runs\Ouput\Phoenix_4inSlab - window 2 - model 3\Phoenix_4inSlab - window 2 - model 3
Output Time:    1/31/19 12:13:15 PM 
Counter:         1 
---------------------------------------------------------------------------------------------------------------------
Program Version,EnergyPlus, Version 9.0.1-bb7ca4f0da, YMD=2019.01.31 12:12,
   ** Warning ** Output:PreprocessorMessage="GroundTempCalc - Slab" has the following Warning condition:
   **   ~~~   ** Slab thickness [0.100 m] reset to 0.122 m  for computational stability.
   ************* Beginning Zone Sizing Calculations
   ** Warning ** CalculateZoneVolume: 1 zone is not fully enclosed. For more details use:  Output:Diagnostics,DisplayExtrawarnings; 
   ** Warning ** CheckUsedConstructions: There are 12 nominally unused constructions in input.
   **   ~~~   ** For explicit details on each unused construction, use Output:Diagnostics,DisplayExtraWarnings;
   ************* Beginning System Sizing Calculations
   ** Warning ** Check input. Pump nominal power or motor efficiency is set to 0, for pump=MAINS PRESSURE_UNIT1
   ************* Testing Individual Branch Integrity
   ************* All Branches passed integrity testing
   ************* Testing Individual Supply Air Path Integrity
   ************* All Supply Air Paths passed integrity testing
   ************* Testing Individual Return Air Path Integrity
   ************* All Return Air Paths passed integrity testing
   ************* No node connection errors were found.
   ************* Beginning Simulation
   ************* Simulation Error Summary *************
   ************* There are 21 unused schedules in input.
   ************* There are 14 unused week schedules in input.
   ************* There are 14 unused day schedules in input.
   ************* Use Output:Diagnostics,DisplayUnusedSchedules; to see them.
   *************
   ************* ===== Final Error Summary =====
   ************* The following error categories occurred.  Consider correcting or noting.
   ************* Nominally Unused Constructions
   ************* ..The nominally unused constructions warning is provided to alert you to potential conditions that can cause
   ************* ..extra time during simulation. Each construction is calculated by the algorithm indicated in the HeatBalanceAlgorithm
   ************* ..object. You may remove the constructions indicated (when you use the DisplayExtraWarnings option).
   *************
   ************* EnergyPlus Warmup Error Summary. During Warmup: 0 Warning; 0 Severe Errors.
   ************* EnergyPlus Sizing Error Summary. During Sizing: 2 Warning; 0 Severe Errors.
   ************* EnergyPlus Completed Successfully-- 4 Warning; 0 Severe Errors; Elapsed Time=00hr 00min 45.15sec


=====================================================================================================================
Input File:     W:\IBPSA Windows Paper\runs\Phoenix_4inSlab - window 1 - model 6.idf
Weather File:   C:\Users\christiankohler\Documents\EnergyStar\weather\USA_AZ_Phoenix-Sky.Harbor.Intl.AP.722780_TMY3.epw
Output Files:   W:\IBPSA Windows Paper\runs\Ouput\Phoenix_4inSlab - window 1 - model 6\Phoenix_4inSlab - window 1 - model 6
Output Time:    1/31/19 12:13:26 PM 
Counter:         1 
---------------------------------------------------------------------------------------------------------------------
Program Version,EnergyPlus, Version 9.0.1-bb7ca4f0da, YMD=2019.01.31 12:12,
   ** Warning ** Output:PreprocessorMessage="GroundTempCalc - Slab" has the following Warning condition:
   **   ~~~   ** Slab thickness [0.100 m] reset to 0.122 m  for computational stability.
   ************* Beginning Zone Sizing Calculations
   ** Warning ** GetSurfaceData: Window dimensions differ from Window 5/6 data file dimensions, 8 times.
   **   ~~~   ** This will affect the frame heat transfer calculation if the frame in the Data File entry
   **   ~~~   ** is not uniform, i.e., has sections with different geometry and/or thermal properties.
   **   ~~~   ** For explicit details on each window, use Output:Diagnostics,DisplayExtraWarnings;
   ** Warning ** CalculateZoneVolume: 1 zone is not fully enclosed. For more details use:  Output:Diagnostics,DisplayExtrawarnings; 
   ** Warning ** CheckUsedConstructions: There are 12 nominally unused constructions in input.
   **   ~~~   ** For explicit details on each unused construction, use Output:Diagnostics,DisplayExtraWarnings;
   ************* Beginning System Sizing Calculations
   ** Warning ** Check input. Pump nominal power or motor efficiency is set to 0, for pump=MAINS PRESSURE_UNIT1
   ************* Testing Individual Branch Integrity
   ************* All Branches passed integrity testing
   ************* Testing Individual Supply Air Path Integrity
   ************* All Supply Air Paths passed integrity testing
   ************* Testing Individual Return Air Path Integrity
   ************* All Return Air Paths passed integrity testing
   ************* No node connection errors were found.
   ************* Beginning Simulation
[...]
   **   ~~~   ** ..Time Zone difference=[9.0] hour(s), Elevation difference=[57.14] percent, [4.00] meters.
   ** Warning ** CalculateZoneVolume: 1 zone is not fully enclosed. For more details use:  Output:Diagnostics,DisplayExtrawarnings; 
   ** Warning ** CheckUsedConstructions: There are 12 nominally unused constructions in input.
   **   ~~~   ** For explicit details on each unused construction, use Output:Diagnostics,DisplayExtraWarnings;
   ************* Beginning System Sizing Calculations
   ** Warning ** Check input. Pump nominal power or motor efficiency is set to 0, for pump=MAINS PRESSURE_UNIT1
   ************* Testing Individual Branch Integrity
   ************* All Branches passed integrity testing
   ************* Testing Individual Supply Air Path Integrity
   ************* All Supply Air Paths passed integrity testing
   ************* Testing Individual Return Air Path Integrity
   ************* All Return Air Paths passed integrity testing
   ************* No node connection errors were found.
   ************* Beginning Simulation
   ************* Simulation Error Summary *************
   ************* There are 21 unused schedules in input.
   ************* There are 14 unused week schedules in input.
   ************* There are 14 unused day schedules in input.
   ************* Use Output:Diagnostics,DisplayUnusedSchedules; to see them.
   *************
   ************* ===== Final Error Summary =====
   ************* The following error categories occurred.  Consider correcting or noting.
   ************* Nominally Unused Constructions
   ************* ..The nominally unused constructions warning is provided to alert you to potential conditions that can cause
   ************* ..extra time during simulation. Each construction is calculated by the algorithm indicated in the HeatBalanceAlgorithm
   ************* ..object. You may remove the constructions indicated (when you use the DisplayExtraWarnings option).
   *************
   ************* EnergyPlus Warmup Error Summary. During Warmup: 0 Warning; 0 Severe Errors.
   ************* EnergyPlus Sizing Error Summary. During Sizing: 3 Warning; 0 Severe Errors.
   ************* EnergyPlus Completed Successfully-- 4 Warning; 0 Severe Errors; Elapsed Time=00hr 00min 40.44sec


=====================================================================================================================
Input File:     W:\IBPSA Windows Paper\runs\Sacramento_highMass_interior_4inWall_6inSlab - window 2 - model 5.idf
Weather File:   C:\Users\christiankohler\Documents\EnergyStar\weather\ITA_Roma-Fiumicino.162420_IGDG.epw
Output Files:   W:\IBPSA Windows Paper\runs\Ouput\Sacramento_highMass_interior_4inWall_6inSlab - window 2 - model 5\Sacramento_highMass_interior_4inWall_6inSlab - window 2 - model 5
Output Time:    1/31/19 12:32:32 PM 
Counter:         1 
---------------------------------------------------------------------------------------------------------------------
Program Version,EnergyPlus, Version 9.0.1-bb7ca4f0da, YMD=2019.01.31 12:32,
   ************* Beginning Zone Sizing Calculations
   ** Warning ** Weather file location will be used rather than entered (IDF) Location object.
   **   ~~~   ** ..Location object=SACRAMENTO METROPOLITAN AP_CA_USA DESIGN_CONDITIONS
   **   ~~~   ** ..Weather File Location=Roma-Fiumicino - ITA IGDG WMO#=162420
   **   ~~~   ** ..due to location differences, Latitude difference=[3.10] degrees, Longitude difference=[133.81] degrees.
   **   ~~~   ** ..Time Zone difference=[9.0] hour(s), Elevation difference=[57.14] percent, [4.00] meters.
   ** Warning ** CalculateZoneVolume: 1 zone is not fully enclosed. For more details use:  Output:Diagnostics,DisplayExtrawarnings; 
   ** Warning ** CheckUsedConstructions: There are 12 nominally unused constructions in input.
   **   ~~~   ** For explicit details on each unused construction, use Output:Diagnostics,DisplayExtraWarnings;
   ************* Beginning System Sizing Calculations
   ** Warning ** Check input. Pump nominal power or motor efficiency is set to 0, for pump=MAINS PRESSURE_UNIT1
   ************* Testing Individual Branch Integrity
   ************* All Branches passed integrity testing
   ************* Testing Individual Supply Air Path Integrity
   ************* All Supply Air Paths passed integrity testing
   ************* Testing Individual Return Air Path Integrity
   ************* All Return Air Paths passed integrity testing
   ************* No node connection errors were found.
   ************* Beginning Simulation
   ************* Simulation Error Summary *************
   ************* There are 21 unused schedules in input.
   ************* There are 14 unused week schedules in input.
   ************* There are 14 unused day schedules in input.
   ************* Use Output:Diagnostics,DisplayUnusedSchedules; to see them.
   *************
   ************* ===== Final Error Summary =====
   ************* The following error categories occurred.  Consider correcting or noting.
   ************* Nominally Unused Constructions
   ************* ..The nominally unused constructions warning is provided to alert you to potential conditions that can cause
   ************* ..extra time during simulation. Each construction is calculated by the algorithm indicated in the HeatBalanceAlgorithm
   ************* ..object. You may remove the constructions indicated (when you use the DisplayExtraWarnings option).
   *************
   ************* EnergyPlus Warmup Error Summary. During Warmup: 0 Warning; 0 Severe Errors.
   ************* EnergyPlus Sizing Error Summary. During Sizing: 3 Warning; 0 Severe Errors.
   ************* EnergyPlus Completed Successfully-- 4 Warning; 0 Severe Errors; Elapsed Time=00hr 00min 20.42sec


=====================================================================================================================
Input File:     W:\IBPSA Windows Paper\runs\Sacramento_highMass_interior_4inWall_6inSlab - window 1 - model 2.idf
Weather File:   C:\Users\christiankohler\Documents\EnergyStar\weather\ITA_Roma-Fiumicino.162420_IGDG.epw
Output Files:   W:\IBPSA Windows Paper\runs\Ouput\Sacramento_highMass_interior_4inWall_6inSlab - window 1 - model 2\Sacramento_highMass_interior_4inWall_6inSlab - window 1 - model 2
Output Time:    1/31/19 12:32:34 PM 
Counter:         1 
---------------------------------------------------------------------------------------------------------------------
Program Version,EnergyPlus, Version 9.0.1-bb7ca4f0da, YMD=2019.01.31 12:32,
   ************* Beginning Zone Sizing Calculations
   ** Warning ** Weather file location will be used rather than entered (IDF) Location object.
   **   ~~~   ** ..Location object=SACRAMENTO METROPOLITAN AP_CA_USA DESIGN_CONDITIONS
   **   ~~~   ** ..Weather File Location=Roma-Fiumicino - ITA IGDG WMO#=162420
   **   ~~~   ** ..due to location differences, Latitude difference=[3.10] degrees, Longitude difference=[133.81] degrees.
   **   ~~~   ** ..Time Zone difference=[9.0] hour(s), Elevation difference=[57.14] percent, [4.00] meters.
   ** Warning ** CalculateZoneVolume: 1 zone is not fully enclosed. For more details use:  Output:Diagnostics,DisplayExtrawarnings; 
   ** Warning ** CheckUsedConstructions: There are 12 nominally unused constructions in input.
   **   ~~~   ** For explicit details on each unused construction, use Output:Diagnostics,DisplayExtraWarnings;
   ************* Beginning System Sizing Calculations
   ** Warning ** Check input. Pump nominal power or motor efficiency is set to 0, for pump=MAINS PRESSURE_UNIT1
   ************* Testing Individual Branch Integrity
   ************* All Branches passed integrity testing
   ************* Testing Individual Supply Air Path Integrity
   ************* All Supply Air Paths passed integrity testing
   ************* Testing Individual Return Air Path Integrity
   ************* All Return Air Paths passed integrity testing
   ************* No node connection errors were found.
   ************* Beginning Simulation
   ************* Simulation Error Summary *************
   ************* There are 21 unused schedules in input.
   ************* There are 14 unused week schedules in input.
   ************* There are 14 unused day schedules in input.
   ************* Use Output:Diagnostics,DisplayUnusedSchedules; to see them.
   *************
   ************* ===== Final Error Summary =====
   ************* The following error categories occurred.  Consider correcting or noting.
   ************* Nominally Unused Constructions
   ************* ..The nominally unused constructions warning is provided to alert you to potential conditions that can cause
   ************* ..extra time during simulation. Each construction is calculated by the algorithm indicated in the HeatBalanceAlgorithm
   ************* ..object. You may remove the constructions indicated (when you use the DisplayExtraWarnings option).
   *************
   ************* EnergyPlus Warmup Error Summary. During Warmup: 0 Warning; 0 Severe Errors.
   ************* EnergyPlus Sizing Error Summary. During Sizing: 3 Warning; 0 Severe Errors.
   ************* EnergyPlus Completed Successfully-- 4 Warning; 0 Severe Errors; Elapsed Time=00hr 00min 34.02sec


=====================================================================================================================
Input File:     W:\IBPSA Windows Paper\runs\Sacramento_highMass_interior_4inWall_6inSlab - window 2 - model 4.idf
Weather File:   C:\Users\christiankohler\Documents\EnergyStar\weather\ITA_Roma-Fiumicino.162420_IGDG.epw
Output Files:   W:\IBPSA Windows Paper\runs\Ouput\Sacramento_highMass_interior_4inWall_6inSlab - window 2 - model 4\Sacramento_highMass_interior_4inWall_6inSlab - window 2 - model 4
Output Time:    1/31/19 12:32:39 PM 
Counter:         1 
---------------------------------------------------------------------------------------------------------------------
Program Version,EnergyPlus, Version 9.0.1-bb7ca4f0da, YMD=2019.01.31 12:32,
   ************* Beginning Zone Sizing Calculations
   ** Warning ** Weather file location will be used rather than entered (IDF) Location object.
   **   ~~~   ** ..Location object=SACRAMENTO METROPOLITAN AP_CA_USA DESIGN_CONDITIONS
   **   ~~~   ** ..Weather File Location=Roma-Fiumicino - ITA IGDG WMO#=162420
   **   ~~~   ** ..due to location differences, Latitude difference=[3.10] degrees, Longitude difference=[133.81] degrees.
   **   ~~~   ** ..Time Zone difference=[9.0] hour(s), Elevation difference=[57.14] percent, [4.00] meters.
   ** Warning ** CalculateZoneVolume: 1 zone is not fully enclosed. For more details use:  Output:Diagnostics,DisplayExtrawarnings; 
   ** Warning ** CheckUsedConstructions: There are 12 nominally unused constructions in input.
   **   ~~~   ** For explicit details on each unused construction, use Output:Diagnostics,DisplayExtraWarnings;
   ************* Beginning System Sizing Calculations
   ** Warning ** Check input. Pump nominal power or motor efficiency is set to 0, for pump=MAINS PRESSURE_UNIT1
   ************* Testing Individual Branch Integrity
   ************* All Branches passed integrity testing
   ************* Testing Individual Supply Air Path Integrity
   ************* All Supply Air Paths passed integrity testing
   ************* Testing Individual Return Air Path Integrity
   ************* All Return Air Paths passed integrity testing
   ************* No node connection errors were found.
   ************* Beginning Simulation
   ************* Simulation Error Summary *************
   ************* There are 21 unused schedules in input.
   ************* There are 14 unused week schedules in input.
   ************* There are 14 unused day schedules in input.
   ************* Use Output:Diagnostics,DisplayUnusedSchedules; to see them.
   *************
   ************* ===== Final Error Summary =====
   ************* The following error categories occurred.  Consider correcting or noting.
   ************* Nominally Unused Constructions
   ************* ..The nominally unused constructions warning is provided to alert you to potential conditions that can cause
   ************* ..extra time during simulation. Each construction is calculated by the algorithm indicated in the HeatBalanceAlgorithm
   ************* ..object. You may remove the constructions indicated (when you use the DisplayExtraWarnings option).
   *************
   ************* EnergyPlus Warmup Error Summary. During Warmup: 0 Warning; 0 Severe Errors.
   ************* EnergyPlus Sizing Error Summary. During Sizing: 3 Warning; 0 Severe Errors.
   ************* EnergyPlus Completed Successfully-- 4 Warning; 0 Severe Errors; Elapsed Time=00hr 00min 21.50sec


=====================================================================================================================
Input File:     W:\IBPSA Windows Paper\runs\Sacramento_highMass_interior_4inWall_6inSlab - window 1 - model 1.idf
Weather File:   C:\Users\christiankohler\Documents\EnergyStar\weather\ITA_Roma-Fiumicino.162420_IGDG.epw
Output Files:   W:\IBPSA Windows Paper\runs\Ouput\Sacramento_highMass_interior_4inWall_6inSlab - window 1 - model 1\Sacramento_highMass_interior_4inWall_6inSlab - window 1 - model 1
Output Time:    1/31/19 12:33:13 PM 
Counter:         1 
---------------------------------------------------------------------------------------------------------------------
Program Version,EnergyPlus, Version 9.0.1-bb7ca4f0da, YMD=2019.01.31 12:32,
   ************* Beginning Zone Sizing Calculations
   ** Warning ** Weather file location will be used rather than entered (IDF) Location object.
   **   ~~~   ** ..Location object=SACRAMENTO METROPOLITAN AP_CA_USA DESIGN_CONDITIONS
   **   ~~~   ** ..Weather File Location=Roma-Fiumicino - ITA IGDG WMO#=162420
   **   ~~~   ** ..due to location differences, Latitude difference=[3.10] degrees, Longitude difference=[133.81] degrees.
   **   ~~~   ** ..Time Zone difference=[9.0] hour(s), Elevation difference=[57.14] percent, [4.00] meters.
   ** Warning ** CalculateZoneVolume: 1 zone is not fully enclosed. For more details use:  Output:Diagnostics,DisplayExtrawarnings; 
   ** Warning ** CheckUsedConstructions: There are 12 nominally unused constructions in input.
   **   ~~~   ** For explicit details on each unused construction, use Output:Diagnostics,DisplayExtraWarnings;
   ************* Beginning System Sizing Calculations
   ** Warning ** Check input. Pump nominal power or motor efficiency is set to 0, for pump=MAINS PRESSURE_UNIT1
   ************* Testing Individual Branch Integrity
   ************* All Branches passed integrity testing
   ************* Testing Individual Supply Air Path Integrity
   ************* All Supply Air Paths passed integrity testing
   ************* Testing Individual Return Air Path Integrity
   ************* All Return Air Paths passed integrity testing
   ************* No node connection errors were found.
   ************* Beginning Simulation
   ************* Simulation Error Summary *************
   ************* There are 21 unused schedules in input.
   ************* There are 14 unused week schedules in input.
   ************* There are 14 unused day schedules in input.
   ************* Use Output:Diagnostics,DisplayUnusedSchedules; to see them.
   *************
   ************* ===== Final Error Summary =====
   ************* The following error categories occurred.  Consider correcting or noting.
   ************* Nominally Unused Constructions
   ************* ..The nominally unused constructions warning is provided to alert you to potential conditions that can cause
   ************* ..extra time during simulation. Each construction is calculated by the algorithm indicated in the HeatBalanceAlgorithm
   ************* ..object. You may remove the constructions indicated (when you use the DisplayExtraWarnings option).
   *************
   ************* EnergyPlus Warmup Error Summary. During Warmup: 0 Warning; 0 Severe Errors.
   ************* EnergyPlus Sizing Error Summary. During Sizing: 3 Warning; 0 Severe Errors.
   ************* EnergyPlus Completed Successfully-- 4 Warning; 0 Severe Errors; Elapsed Time=00hr 00min 48.70sec


=====================================================================================================================
Input File:     W:\IBPSA Windows Paper\runs\Sacramento_highMass_interior_4inWall_6inSlab - window 5 - model 1.idf
Weather File:   C:\Users\christiankohler\Documents\EnergyStar\weather\ITA_Roma-Fiumicino.162420_IGDG.epw
Output Files:   W:\IBPSA Windows Paper\runs\Ouput\Sacramento_highMass_interior_4inWall_6inSlab - window 5 - model 1\Sacramento_highMass_interior_4inWall_6inSlab - window 5 - model 1
Output Time:    1/31/19 12:33:21 PM 
Counter:         1 
---------------------------------------------------------------------------------------------------------------------
Program Version,EnergyPlus, Version 9.0.1-bb7ca4f0da, YMD=2019.01.31 12:32,
   ************* Beginning Zone Sizing Calculations
   ** Warning ** Weather file location will be used rather than entered (IDF) Location object.
   **   ~~~   ** ..Location object=SACRAMENTO METROPOLITAN AP_CA_USA DESIGN_CONDITIONS
   **   ~~~   ** ..Weather File Location=Roma-Fiumicino - ITA IGDG WMO#=162420
   **   ~~~   ** ..due to location differences, Latitude difference=[3.10] degrees, Longitude difference=[133.81] degrees.
   **   ~~~   ** ..Time Zone difference=[9.0] hour(s), Elevation difference=[57.14] percent, [4.00] meters.
   ** Warning ** CalculateZoneVolume: 1 zone is not fully enclosed. For more details use:  Output:Diagnostics,DisplayExtrawarnings; 
   ** Warning ** CheckUsedConstructions: There are 12 nominally unused constructions in input.
   **   ~~~   ** For explicit details on each unused construction, use Output:Diagnostics,DisplayExtraWarnings;
   ************* Beginning System Sizing Calculations
   ** Warning ** Check input. Pump nominal power or motor efficiency is set to 0, for pump=MAINS PRESSURE_UNIT1
   ************* Testing Individual Branch Integrity
   ************* All Branches passed integrity testing
   ************* Testing Individual Supply Air Path Integrity
   ************* All Supply Air Paths passed integrity testing
   ************* Testing Individual Return Air Path Integrity
   ************* All Return Air Paths passed integrity testing
   ************* No node connection errors were found.
   ************* Beginning Simulation
   ************* Simulation Error Summary *************
   ************* There are 21 unused schedules in input.
   ************* There are 14 unused week schedules in input.
   ************* There are 14 unused day schedules in input.
   ************* Use Output:Diagnostics,DisplayUnusedSchedules; to see them.
   *************
   ************* ===== Final Error Summary =====
   ************* The following error categories occurred.  Consider correcting or noting.
   ************* Nominally Unused Constructions
   ************* ..The nominally unused constructions warning is provided to alert you to potential conditions that can cause
   ************* ..extra time during simulation. Each construction is calculated by the algorithm indicated in the HeatBalanceAlgorithm
   ************* ..object. You may remove the constructions indicated (when you use the DisplayExtraWarnings option).
   *************
   ************* EnergyPlus Warmup Error Summary. During Warmup: 0 Warning; 0 Severe Errors.
   ************* EnergyPlus Sizing Error Summary. During Sizing: 3 Warning; 0 Severe Errors.
   ************* EnergyPlus Completed Successfully-- 4 Warning; 0 Severe Errors; Elapsed Time=00hr 01min  6.19sec
